LAMMPS (4 Jan 2019)

units         real

atom_style      full
pair_style      lj/charmm/coul/long 8.0 10.0
bond_style      harmonic
angle_style     charmm
dihedral_style  charmm
improper_style  harmonic
kspace_style    ewald 0.001

neighbor        7.0 bin

region rfull block  -50 50 -50 50  -50 50
region cation block  -45 0 -50 50  -50 50
region anion block  5 50 -50 50   -50 50

lattice fcc 12.
Lattice spacing in x,y,z = 12 12 12

create_box 2 rfull
Created orthogonal box = (-50 -50 -50) to (50 50 50)

pair_coeff   * *  0.28 3.

create_atoms 1 region cation
Created 1156 atoms
  Time spent = 0.00208727 secs
create_atoms 2 region anion
Created 1156 atoms
  Time spent = 9.42331e-05 secs

set type 1 charge -1.
  1156 settings made for charge
set type 2 charge 1.
  1156 settings made for charge

mass 1 39.948
mass 2 39.948

# comm_style brick
# comm_style tiled

velocity all create 87.3 102486 mom yes rot no dist gaussian

thermo_style    custom step density pe ke epair temp press
thermo        1000

fix  0 all nvt temp 87.3 87.3 8.
dump 1 all xyz 50 charged.xyz
dump_modify 1 element C O
run 1000
Ewald initialization ...
  G vector (1/distance) = 0.184791
  estimated absolute RMS force accuracy = 0.450186
  estimated relative force accuracy = 0.00135572
  KSpace vectors: actual max1d max3d = 2787 11 6083
                  kxmax kymax kzmax  = 11 11 11
  update every 1 steps, delay 10 steps, check yes
Step Density PotEng KinEng E_pair Temp Press
0     0.153367    2392807.6    601.37932    2392807.6         87.3    54728.462
Loop time of 11.314 on 16 procs for 1000 steps with 2312 atoms

Ewald initialization ...
  G vector (1/distance) = 0.184791
  estimated absolute RMS force accuracy = 0.450186
  estimated relative force accuracy = 0.00135572
  KSpace vectors: actual max1d max3d = 2787 11 6083
                  kxmax kymax kzmax  = 11 11 11
Step Density PotEng KinEng E_pair Temp Press
1000     0.153367    1076282.9    1631.4599    1076282.9    236.83297    27439.934
Loop time of 321.46 on 4 procs for 5000 steps with 2312 atoms

ime: 0:04:03
